[TITLE]
;;Project Title/Notes

[OPTIONS]
;;Option             Value
FLOW_UNITS           CMS
INFILTRATION         CURVE_NUMBER
FLOW_ROUTING         DYNWAVE
LINK_OFFSETS         ELEVATION
MIN_SLOPE            0
ALLOW_PONDING        NO
SKIP_STEADY_STATE    NO

START_DATE           01/01/2024
START_TIME           00:00:00
REPORT_START_DATE    01/01/2024
REPORT_START_TIME    00:00:00
END_DATE             01/01/2024
END_TIME             06:00:00
SWEEP_START          01/01
SWEEP_END            12/31
DRY_DAYS             0
REPORT_STEP          00:10:00
WET_STEP             01:00:00
DRY_STEP             01:00:00
ROUTING_STEP         0:00:10 
RULE_STEP            00:00:00

INERTIAL_DAMPING     PARTIAL
NORMAL_FLOW_LIMITED  BOTH
FORCE_MAIN_EQUATION  H-W
VARIABLE_STEP        0.75
LENGTHENING_STEP     0
MIN_SURFAREA         1.14
MAX_TRIALS           8
HEAD_TOLERANCE       0.0015
SYS_FLOW_TOL         5
LAT_FLOW_TOL         5
MINIMUM_STEP         0.5
THREADS              1

[EVAPORATION]
;;Data Source    Parameters
;;-------------- ----------------
CONSTANT         0.0
DRY_ONLY         NO

[RAINGAGES]
;;Name           Format    Interval SCF      Source    
;;-------------- --------- ------ ------ ----------
T003             INTENSITY 01:00    1        TIMESERIES T003            
T004             INTENSITY 01:00    1        TIMESERIES T004            
T005             INTENSITY 01:00    1        TIMESERIES T005            
T006             INTENSITY 01:00    1        TIMESERIES T006            
T007             INTENSITY 01:00    1        TIMESERIES T007            
T008             INTENSITY 01:00    1        TIMESERIES T008            
T009             INTENSITY 01:00    1        TIMESERIES T009            
T010             INTENSITY 01:00    1        TIMESERIES T010            
T014             INTENSITY 01:00    1        TIMESERIES T014            
T015             INTENSITY 01:00    1        TIMESERIES T015            
T016             INTENSITY 01:00    1        TIMESERIES T016            
T017             INTENSITY 01:00    1        TIMESERIES T017            
T018             INTENSITY 01:00    1        TIMESERIES T018            
T019             INTENSITY 01:00    1        TIMESERIES T019            
T09              INTENSITY 01:00    1        TIMESERIES T09             
T15              INTENSITY 01:00    1        TIMESERIES T15             
T22              INTENSITY 01:00    1        TIMESERIES T22             
T31              INTENSITY 01:00    1        TIMESERIES T31             
T35              INTENSITY 01:00    1        TIMESERIES T35             
T14              INTENSITY 01:00    1        TIMESERIES T14             
T404             INTENSITY 01:00    1        TIMESERIES T404            
T403             INTENSITY 01:00    1        TIMESERIES T403            
T402             INTENSITY 01:00    1        TIMESERIES T402            
T401             INTENSITY 01:00    1        TIMESERIES T401            
T405             INTENSITY 01:00    1        TIMESERIES T405            
T020             INTENSITY 01:00    1        TIMESERIES T020            
T022             INTENSITY 01:00    1        TIMESERIES T022            
T025             INTENSITY 01:00    1        TIMESERIES T025            
T050             INTENSITY 01:00    1        TIMESERIES T050            
T054             INTENSITY 01:00    1        TIMESERIES T054            
T055             INTENSITY 01:00    1        TIMESERIES T055            
T053             INTENSITY 01:00    1        TIMESERIES T053            
T056             INTENSITY 01:00    1        TIMESERIES T056            
466920           INTENSITY 01:00    1        TIMESERIES 466920          
C0A770           INTENSITY 01:00    1        TIMESERIES C0A770          
C0A9C0           INTENSITY 01:00    1        TIMESERIES C0A9C0          
C0AH00           INTENSITY 01:00    1        TIMESERIES C0AH00          
C0AH70           INTENSITY 01:00    1        TIMESERIES C0AH70          
C0AI40           INTENSITY 01:00    1        TIMESERIES C0AI40          
C1AC50           INTENSITY 01:00    1        TIMESERIES C1AC50          
Rain_1           INTENSITY 01:00    1        TIMESERIES Rain_1          
Rain_2           INTENSITY 01:00    1        TIMESERIES Rain_2          

[SUBCATCHMENTS]
;;Name           Rain Gage        Outlet           Area     %Imperv  Width    %Slope   CurbLen  SnowPack        
;;-------------- ---------------- ---------------- -------- -------- -------- -------- -------- ----------------
AF_3944-0226     466920           3944-0226        123.4    10       2221.71  0.001    0                        
BJ_3947-0085     T006             3947-0085        74.9662  10       1731.66  0.001    0                        
DA_4158-0019     C0A9C0           4158-0019        83.1142  10       1823.34  0.001    0                        
AE_3741-0150     T022             3741-0150        68.9718  10       1660.99  0.001    0                        
DD_3360-0083     C1AC50           3360-0083        165.317  10       2571.51  0.001    0                        
DD_3461-0005     T003             3461-0005        165.549  10       2573.32  0.001    0                        
DD_3559-0001     C1AC50           3559-0001        573.65   0        4790.2   0.001    0                        
DE_3753-0004     T14              3753-0004        252.138  5        3175.77  0.001    0                        
BK_3642-0562     T09              3642-0562        205.293  20       2865.61  0.001    0                        
BK_3744-1148     466920           3744-1148        151.554  20       2462.15  0.001    0                        
DC_3760-0003     T004             3760-0003        66.036   10       1625.25  0.001    0                        
DC_3761-0004     T004             3761-0004        123.812  10       2225.42  0.001    0                        
AD1_A04          466920           A04              22.419   10       946.974  0.001    0                        
AE_3842-0120     T022             3842-0120        79.9833  10       1788.67  0.001    0                        
BK_3847-0002     T006             3847-0002        137.014  20       2341.06  0.001    0                        
BK_3849-0065     T006             3849-0065        48.6014  20       1394.29  0.001    0                        
DE1_3753-0004    C0A770           3753-0004        26.0065  20       1019.93  0.001    0                        
D_3853-0055      T005             3853-0055        189.797  10       2755.34  0.001    0                        
DC_3857-0008     C0AI40           3857-0008        306.065  10       3498.94  0.001    0                        
DC_3858-0004     C0AI40           3858-0004        94.2775  10       1941.93  0.001    0                        
DC_3860-0059     T35              3860-0059        106.711  10       2066.02  0.001    0                        
DC_3862-0616     T403             3862-0616        182.998  10       2705.54  0.001    0                        
BJ1_3950-0164    T22              3950-0164        57.4501  10       1515.92  0.001    0                        
BJ_3949-1077     T006             3949-1077        117.339  10       2166.46  0.001    0                        
CB_3953-0411     T005             3953-0411        123.119  10       2219.18  0.001    0                        
DC_3955-0019     C0A770           3955-0019        52.5101  10       1449.28  0.001    0                        
DC_3857-0044     C0AI40           3857-0044        202.796  0        2848.13  0.001    0                        
DC_3956-0007     C0A770           3956-0007        52.1092  10       1443.73  0.001    0                        
A_4041-0139      T056             4041-0139        186.339  20       2730.12  0.001    0                        
AD_A07           T008             A07              206.41   10       2873.4   0.001    0                        
AD_4044-0583     T020             4044-0583        203.313  10       2851.76  0.001    0                        
BI_4046-0853     T020             4046-0853        95.5796  10       1955.3   0.001    0                        
BI_4049-0020     T22              4049-0020        61.9536  10       1574.21  0.001    0                        
CA'_4054-0013    T401             4054-0013        355.954  10       3773.35  0.001    0                        
CA_4055-0074     T31              4055-0074        86.5235  10       1860.36  0.001    0                        
BF_4141-0067     T056             4141-0067        199.939  10       2828     0.001    0                        
BH_4147-0007     T020             4147-0007        60.8126  10       1559.65  0.001    0                        
BH_4148-0922     T22              4148-0922        64.2388  10       1602.98  0.001    0                        
BG_4150-0007     T22              4150-0007        45.2539  10       1345.42  0.001    0                        
DA_4156-0108     T31              4156-0108        67.5689  10       1644.01  0.001    0                        
DB_4157-0104     T31              4157-0104        140.558  10       2371.14  0.001    0                        
DB_4159-0021     T404             4159-0021        212.285  10       2914     0.001    0                        
DA1_4258-0404    T010             4258-0404        7.15822  0        535.097  0.001    0                        
DA2_4258-0404    T010             4258-0404        65.8182  10       1622.57  0.001    0                        
DA3_4258-0404    T010             4258-0404        7.03979  10       530.652  0.001    0                        
DA4_4258-0404    T010             4258-0404        43.9258  10       1325.53  0.001    0                        
A_4236-0830      T056             4236-0830        153.989  20       2481.85  0.001    0                        
BF_4242-0003     T008             4242-0003        80.5092  10       1794.54  0.001    0                        
BF_4244-0412     T020             4244-0412        120.229  10       2192.98  0.001    0                        
BF_4246-0105     T020             4246-0105        161.882  10       2544.66  0.001    0                        
BF_4248-0830     T050             4248-0830        126.266  10       2247.36  0.001    0                        
BG_4250-0012     T050             4250-0012        280.512  10       3349.7   0.001    0                        
BE_4341-0047     T009             4341-0047        284.176  10       3371.5   0.001    0                        
BF_4343-0043     T054             4343-0043        35.0272  10       1183.68  0.001    0                        
BF_4343-0776     T054             4343-0776        41.0942  10       1282.1   0.001    0                        
BE_4344-0579     T054             4344-0579        191.929  10       2770.77  0.001    0                        
BE_4346-0636     C0AH70           4346-0636        165.045  10       2569.4   0.001    0                        
AC_4433-0059     T025             4433-0059        73.043   10       1709.3   0.001    0                        
A_4437-0082      T055             4437-0082        297.499  20       3449.63  0.001    0                        
BE_4443-0127     T054             4443-0127        97.4318  10       1974.15  0.001    0                        
BD_4446-0021     C0AH70           4446-0021        90.3352  10       1900.9   0.001    0                        
BD_4447-0064     C0AH70           4447-0064        150.704  10       2455.23  0.001    0                        
AB_4534-0733     T019             4534-0733        71.2461  10       1688.15  0.001    0                        
AC_4435-0023     T025             4435-0023        86.0509  10       1855.27  0.001    0                        
A_4536-0073      T055             4536-0073        130.838  10       2287.69  0.001    0                        
BE_4543-0104     T017             4543-0104        68.2069  10       1651.75  0.001    0                        
BE_4543-0136     T009             4543-0136        35.5814  10       1193     0.001    0                        
BD1_4549-0163    T007             4549-0163        108.579  10       2084.02  0.001    0                        
A_4635-0405      T019             4635-0405        61.5879  10       1569.56  0.001    0                        
BE_4642-0057     T009             4642-0057        158.707  10       2519.58  0.001    0                        
BC_4644-0024     T015             4644-0024        185.999  10       2727.63  0.001    0                        
B_4646-0983      T15              4646-0983        30.2817  10       1100.58  0.001    0                        
AA_4734-0076     T019             4734-0076        391.621  10       3957.88  0.001    0                        
AA1_4734-0076    T019             4734-0076        34.0198  10       1166.53  0.001    0                        
AA2_4734-0076    T019             4734-0076        17.3426  10       832.889  0.001    0                        
A1_4737-0010     T018             4737-0010        47.7113  0        1381.47  0.001    0                        
A_4737-0010      T018             4737-0010        89.2147  10       1889.07  0.001    0                        
BC_4745-0106     T15              4745-0106        134.753  10       2321.66  0.001    0                        
BB_4845-0956     T015             4845-0956        78.7776  10       1775.14  0.001    0                        
B_4847-0021      T15              4847-0021        110.166  10       2099.2   0.001    0                        
BB_4945-0071     T015             4945-0071        280.787  10       3351.34  0.001    0                        
B_5047-0024      T053             5047-0024        107.401  10       2072.69  0.001    0                        
B_5147-0036      T053             5147-0036        133.292  10       2309.04  0.001    0                        
BA_5245-0015     T016             5245-0015        142.005  10       2383.32  0.001    0                        
BA_5246-0022     T405             5246-0022        63.3933  10       1592.4   0.001    0                        
sub5449-1        T402             5449-1           334.935  10       1830.12  0.005    0                        
sub5348-3        T014             5348-3           111.98   10       1058.21  0.005    0                        
subs5449-1       T402             5449-1           45.7883  10       676.671  0.005    0                        
sub5550-2        C0AH00           5550-2           8.74324  10       295.69   0.005    0                        
sub5750-1        C0AH00           5750-1           55.52    10       745.117  0.005    0                        
sub5851-1        C0AH00           5851-1           141.41   10       1189.16  0.005    0                        
subs5850-1       C0AH00           5850-1           32.2905  10       568.247  0.005    0                        
sub5850-1        C0AH00           5850-1           46.1975  10       679.687  0.005    0                        
sub5650-3        C0AH00           5650-3           50.2436  10       708.827  0.005    0                        
sub5448-2        T014             5448-2           86.3058  10       929.009  0.005    0                        
sub5650-2        C0AH00           5650-2           65.7649  10       810.956  0.005    0                        
sub5952-3        C0AH00           5952-5           117.908  10       1085.85  0.005    0                        
sub5749-42       C0AH00           5749-42          306.029  10       1749.37  0.005    0                        
sub5549-3        C0AH00           5549-3           37.9691  10       616.191  0.005    0                        
sub5247-1        T405             5247-1           159.947  10       1264.7   0.005    0                        
E_4251-0005      T22              4251-0005        140.983  10       2374.72  0.005    0                        

[SUBAREAS]
;;Subcatchment   N-Imperv   N-Perv     S-Imperv   S-Perv     PctZero    RouteTo    PctRouted 
;;-------------- ---------- ---------- ---------- ---------- ---------- ---------- ----------
AF_3944-0226     0.015      0.12       0.1        0.05       5          OUTLET    
BJ_3947-0085     0.015      0.12       0.1        0.05       5          OUTLET    
DA_4158-0019     0.015      0.12       0.1        0.05       5          OUTLET    
AE_3741-0150     0.015      0.12       0.1        0.05       5          OUTLET    
DD_3360-0083     0.015      0.12       0.1        0.05       5          OUTLET    
DD_3461-0005     0.015      0.12       0.1        0.05       5          OUTLET    
DD_3559-0001     0.015      0.12       100        100        0          OUTLET    
DE_3753-0004     0.015      0.12       0.1        0.05       5          OUTLET    
BK_3642-0562     0.015      0.12       0.1        0.05       5          OUTLET    
BK_3744-1148     0.015      0.12       0.1        0.05       5          OUTLET    
DC_3760-0003     0.015      0.12       0.1        0.05       5          OUTLET    
DC_3761-0004     0.015      0.12       0.1        0.05       5          OUTLET    
AD1_A04          0.015      0.12       0.1        0.05       5          OUTLET    
AE_3842-0120     0.015      0.12       0.1        0.05       5          OUTLET    
BK_3847-0002     0.015      0.12       0.1        0.05       5          OUTLET    
BK_3849-0065     0.015      0.12       0.1        0.05       5          OUTLET    
DE1_3753-0004    0.015      0.12       0.1        0.05       5          OUTLET    
D_3853-0055      0.015      0.12       0.1        0.05       5          OUTLET    
DC_3857-0008     0.015      0.12       0.1        0.05       5          OUTLET    
DC_3858-0004     0.015      0.12       0.1        0.05       5          OUTLET    
DC_3860-0059     0.015      0.12       0.1        0.05       5          OUTLET    
DC_3862-0616     0.015      0.12       0.1        0.05       5          OUTLET    
BJ1_3950-0164    0.015      0.12       0.1        0.05       5          OUTLET    
BJ_3949-1077     0.015      0.12       0.1        0.05       5          OUTLET    
CB_3953-0411     0.015      0.12       0.1        0.05       5          OUTLET    
DC_3955-0019     0.015      0.12       0.1        0.05       5          OUTLET    
DC_3857-0044     0.015      0.12       100        100        0          OUTLET    
DC_3956-0007     0.015      0.12       0.1        0.05       5          OUTLET    
A_4041-0139      0.015      0.12       0.1        0.05       5          OUTLET    
AD_A07           0.015      0.12       0.1        0.05       5          OUTLET    
AD_4044-0583     0.015      0.12       0.1        0.05       5          OUTLET    
BI_4046-0853     0.015      0.12       0.1        0.05       5          OUTLET    
BI_4049-0020     0.015      0.12       0.1        0.05       5          OUTLET    
CA'_4054-0013    0.015      0.12       0.1        0.05       5          OUTLET    
CA_4055-0074     0.015      0.12       0.1        0.05       5          OUTLET    
BF_4141-0067     0.015      0.12       0.1        0.05       5          OUTLET    
BH_4147-0007     0.015      0.12       0.1        0.05       5          OUTLET    
BH_4148-0922     0.015      0.12       0.1        0.05       5          OUTLET    
BG_4150-0007     0.015      0.12       0.1        0.05       5          OUTLET    
DA_4156-0108     0.015      0.12       0.1        0.05       5          OUTLET    
DB_4157-0104     0.015      0.12       0.1        0.05       5          OUTLET    
DB_4159-0021     0.015      0.12       0.1        0.05       5          OUTLET    
DA1_4258-0404    0.015      0.12       100        100        0          OUTLET    
DA2_4258-0404    0.015      0.12       0.1        0.05       5          OUTLET    
DA3_4258-0404    0.015      0.12       0.1        0.05       5          OUTLET    
DA4_4258-0404    0.015      0.12       0.1        0.05       5          OUTLET    
A_4236-0830      0.015      0.12       0.1        0.05       5          OUTLET    
BF_4242-0003     0.015      0.12       0.1        0.05       5          OUTLET    
BF_4244-0412     0.015      0.12       0.1        0.05       5          OUTLET    
BF_4246-0105     0.015      0.12       0.1        0.05       5          OUTLET    
BF_4248-0830     0.015      0.12       0.1        0.05       5          OUTLET    
BG_4250-0012     0.015      0.12       0.1        0.05       5          OUTLET    
BE_4341-0047     0.015      0.12       0.1        0.05       5          OUTLET    
BF_4343-0043     0.015      0.12       0.1        0.05       5          OUTLET    
BF_4343-0776     0.015      0.12       0.1        0.05       5          OUTLET    
BE_4344-0579     0.015      0.12       0.1        0.05       5          OUTLET    
BE_4346-0636     0.015      0.12       0.1        0.05       5          OUTLET    
AC_4433-0059     0.015      0.12       0.1        0.05       5          OUTLET    
A_4437-0082      0.015      0.12       0.1        0.05       5          OUTLET    
BE_4443-0127     0.015      0.12       0.1        0.05       5          OUTLET    
BD_4446-0021     0.015      0.12       0.1        0.05       5          OUTLET    
BD_4447-0064     0.015      0.12       0.1        0.05       5          OUTLET    
AB_4534-0733     0.015      0.12       0.1        0.05       5          OUTLET    
AC_4435-0023     0.015      0.12       0.1        0.05       5          OUTLET    
A_4536-0073      0.015      0.12       0.1        0.05       5          OUTLET    
BE_4543-0104     0.015      0.12       0.1        0.05       5          OUTLET    
BE_4543-0136     0.015      0.12       0.1        0.05       5          OUTLET    
BD1_4549-0163    0.015      0.12       0.1        0.05       5          OUTLET    
A_4635-0405      0.015      0.12       0.1        0.05       5          OUTLET    
BE_4642-0057     0.015      0.12       0.1        0.05       5          OUTLET    
BC_4644-0024     0.015      0.12       0.1        0.05       5          OUTLET    
B_4646-0983      0.015      0.12       0.1        0.05       5          OUTLET    
AA_4734-0076     0.015      0.12       0.1        0.05       5          OUTLET    
AA1_4734-0076    0.015      0.12       0.1        0.05       5          OUTLET    
AA2_4734-0076    0.015      0.12       0.1        0.05       5          OUTLET    
A1_4737-0010     0.015      0.12       100        100        0          OUTLET    
A_4737-0010      0.015      0.12       0.1        0.05       5          OUTLET    
BC_4745-0106     0.015      0.12       0.1        0.05       5          OUTLET    
BB_4845-0956     0.015      0.12       0.1        0.05       5          OUTLET    
B_4847-0021      0.015      0.12       0.1        0.05       5          OUTLET    
BB_4945-0071     0.015      0.12       0.1        0.05       5          OUTLET    
B_5047-0024      0.015      0.12       0.1        0.05       5          OUTLET    
B_5147-0036      0.015      0.12       0.1        0.05       5          OUTLET    
BA_5245-0015     0.015      0.12       0.1        0.05       5          OUTLET    
BA_5246-0022     0.015      0.12       0.1        0.05       5          OUTLET    
sub5449-1        0.015      0.12       0.1        0.05       5          OUTLET    
sub5348-3        0.015      0.12       0.1        0.05       5          OUTLET    
subs5449-1       0.015      0.12       0.1        0.05       5          OUTLET    
sub5550-2        0.015      0.12       0.1        0.05       5          OUTLET    
sub5750-1        0.015      0.12       0.1        0.05       5          OUTLET    
sub5851-1        0.015      0.12       0.1        0.05       5          OUTLET    
subs5850-1       0.015      0.12       0.1        0.05       5          OUTLET    
sub5850-1        0.015      0.12       0.1        0.05       5          OUTLET    
sub5650-3        0.015      0.12       0.1        0.05       5          OUTLET    
sub5448-2        0.015      0.12       0.1        0.05       5          OUTLET    
sub5650-2        0.015      0.12       0.1        0.05       5          OUTLET    
sub5952-3        0.015      0.12       0.1        0.05       5          OUTLET    
sub5749-42       0.015      0.12       0.1        0.05       5          OUTLET    
sub5549-3        0.015      0.12       0.1        0.05       5          OUTLET    
sub5247-1        0.015      0.12       0.1        0.05       5          OUTLET    
E_4251-0005      0.015      0.12       0.1        0.05       5          OUTLET    

[INFILTRATION]
;;Subcatchment   Param1     Param2     Param3     Param4     Param5    
;;-------------- ---------- ---------- ---------- ---------- ----------
AF_3944-0226     20         0.5        1          7          0         
BJ_3947-0085     20         0.5        1          7          0         
DA_4158-0019     20         0.5        1          7          0         
AE_3741-0150     20         0.5        1          7          0         
DD_3360-0083     20         0.5        1          7          0         
DD_3461-0005     20         0.5        1          7          0         
DD_3559-0001     10         0.5        4          7          0         
DE_3753-0004     10         0.5        4          7          0         
BK_3642-0562     20         0.5        1          7          0         
BK_3744-1148     20         0.5        1          7          0         
DC_3760-0003     20         0.5        1          7          0         
DC_3761-0004     20         0.5        1          7          0         
AD1_A04          20         0.5        1          7          0         
AE_3842-0120     20         0.5        1          7          0         
BK_3847-0002     20         0.5        1          7          0         
BK_3849-0065     20         0.5        1          7          0         
DE1_3753-0004    10         0.5        4          7          0         
D_3853-0055      20         0.5        1          7          0         
DC_3857-0008     20         0.5        1          7          0         
DC_3858-0004     20         0.5        1          7          0         
DC_3860-0059     20         0.5        1          7          0         
DC_3862-0616     20         0.5        1          7          0         
BJ1_3950-0164    20         0.5        1          7          0         
BJ_3949-1077     20         0.5        1          7          0         
CB_3953-0411     20         0.5        1          7          0         
DC_3955-0019     20         0.5        1          7          0         
DC_3857-0044     10         0.5        4          7          0         
DC_3956-0007     20         0.5        1          7          0         
A_4041-0139      20         0.5        1          7          0         
AD_A07           20         0.5        1          7          0         
AD_4044-0583     20         0.5        1          7          0         
BI_4046-0853     20         0.5        1          7          0         
BI_4049-0020     20         0.5        1          7          0         
CA'_4054-0013    20         0.5        1          7          0         
CA_4055-0074     20         0.5        1          7          0         
BF_4141-0067     20         0.5        1          7          0         
BH_4147-0007     20         0.5        1          7          0         
BH_4148-0922     20         0.5        1          7          0         
BG_4150-0007     20         0.5        1          7          0         
DA_4156-0108     20         0.5        1          7          0         
DB_4157-0104     20         0.5        1          7          0         
DB_4159-0021     20         0.5        1          7          0         
DA1_4258-0404    10         0.5        4          7          0         
DA2_4258-0404    20         0.5        1          7          0         
DA3_4258-0404    20         0.5        1          7          0         
DA4_4258-0404    20         0.5        1          7          0         
A_4236-0830      20         0.5        1          7          0         
BF_4242-0003     20         0.5        1          7          0         
BF_4244-0412     20         0.5        1          7          0         
BF_4246-0105     20         0.5        1          7          0         
BF_4248-0830     20         0.5        1          7          0         
BG_4250-0012     20         0.5        1          7          0         
BE_4341-0047     20         0.5        1          7          0         
BF_4343-0043     20         0.5        1          7          0         
BF_4343-0776     20         0.5        1          7          0         
BE_4344-0579     20         0.5        1          7          0         
BE_4346-0636     20         0.5        1          7          0         
AC_4433-0059     20         0.5        1          7          0         
A_4437-0082      20         0.5        1          7          0         
BE_4443-0127     20         0.5        1          7          0         
BD_4446-0021     20         0.5        1          7          0         
BD_4447-0064     20         0.5        1          7          0         
AB_4534-0733     20         0.5        1          7          0         
AC_4435-0023     20         0.5        1          7          0         
A_4536-0073      20         0.5        1          7          0         
BE_4543-0104     20         0.5        1          7          0         
BE_4543-0136     20         0.5        1          7          0         
BD1_4549-0163    20         0.5        1          7          0         
A_4635-0405      20         0.5        1          7          0         
BE_4642-0057     20         0.5        1          7          0         
BC_4644-0024     20         0.5        1          7          0         
B_4646-0983      20         0.5        1          7          0         
AA_4734-0076     20         0.5        1          7          0         